1_Yearly_simulation_with_lines_losses/Transformer.dss
New "Transformer.t0" phases=3 windings=2 buses=[utility_company.1.2.3, main_switch_panel.1.2.3, ] conns=[wye, wye, ]  kVs=[10, 0.4798]  kVAs=[1000, 1000, ] taps=[1, 1, ] buses=[utility_company.1.2.3, main_switch_panel.1.2.3, ] wdg=1 %R=0.2 RdcOhms=0.05666667 wdg=2 %R=0.2 RdcOhms=4.347977E-005 RdcOhms=4.347977E-005
New "Transformer.t1" phases=3 windings=2 buses=[main_switch_panel.1.2.3, switch_panel_1.1.2.3, ]  conns=[delta, wye ] kVs=[0.4798, 0.208] kVAs=[150, 150, ] taps=[1, 1, ] buses=[main_switch_panel.1.2.3, switch_panel_1.1.2.3, ] wdg=1 %R=0.2 RdcOhms=0.0008695953 wdg=2 %R=0.2 RdcOhms=5.44E-005 RdcOhms=5.44E-005
New "Transformer.t2" phases=3 windings=2 buses=[main_switch_panel.1.2.3, switch_panel_2.1.2.3, ] conns=[delta, wye, ] kVs=[0.4798, 0.208] kVAs=[150, 150, ] 
